@<TRIPOS>MOLECULE
*****
    6     5     1     0     0
SMALL
No Charge or Current Charge


@<TRIPOS>ATOM
      1 C            0.9370    -0.0380     0.0540 c2         1 UNL      -0.105800
      2 C1           2.2730    -0.0380     0.0540 c2         1 UNL      -0.105800
      3 H            0.3770     0.2540     0.9360 ha         1 UNL       0.052900
      4 H1           0.3770    -0.3310    -0.8290 ha         1 UNL       0.052900
      5 H2           2.8330     0.2540     0.9360 ha         1 UNL       0.052900
      6 H3           2.8330    -0.3310    -0.8290 ha         1 UNL       0.052900
@<TRIPOS>BOND
     1     1     2 2   
     2     1     3 1   
     3     1     4 1   
     4     2     5 1   
     5     2     6 1   
@<TRIPOS>SUBSTRUCTURE
     1 UNL         1 TEMP              0 ****  ****    0 ROOT
