@<TRIPOS>MOLECULE
HOH
    3     2     1     0     0
SMALL
No Charge or Current Charge


@<TRIPOS>ATOM
      1 O            1.0000     0.0000     0.0000 oh         1 HOH       0.000000
      2 H            0.0000     0.0000     0.0000 ho         0 HOH       0.000000
      3 H1           1.0000     1.0000     0.0000 ho         0 HOH       0.000000
@<TRIPOS>BOND
     1     1     2 1   
     2     1     3 1   
@<TRIPOS>SUBSTRUCTURE
     1 HOH         1 TEMP              0 ****  ****    0 ROOT
