@<TRIPOS>MOLECULE
BUTANE
   14    13     1     0     0
SMALL
No Charge or Current Charge


@<TRIPOS>ATOM
      1 C1           2.6490     1.2080    -2.0930 c3         1 non      -0.065400
      2 C2           1.2980     0.8340    -1.4450 c3         1 non      -0.056400
      3 C3           1.4650     0.0630    -0.1090 c3         1 non      -0.056400
      4 C4           0.1140    -0.3110     0.5390 c3         1 non      -0.065400
      5 H1           3.3820     1.4110    -1.3120 hc         1 non       0.023000
      6 H2           2.9970     0.3810    -2.7120 hc         1 non       0.023000
      7 H3           2.5220     2.0970    -2.7120 hc         1 non       0.023000
      8 H4           0.8150     1.7780    -1.1920 hc         1 non       0.026300
      9 H5           0.8150     0.1430    -2.1360 hc         1 non       0.026300
     10 H6           1.9480    -0.8810    -0.3620 hc         1 non       0.026300
     11 H7           1.9480     0.7540     0.5820 hc         1 non       0.026300
     12 H8           0.2110    -0.2840     1.6250 hc         1 non       0.023000
     13 H9          -0.6490     0.4010     0.2250 hc         1 non       0.023000
     14 H10         -0.1740    -1.3150     0.2250 hc         1 non       0.023000
@<TRIPOS>BOND
     1     1     2 1   
     2     2     3 1   
     3     3     4 1   
     4     1     5 1   
     5     1     6 1   
     6     1     7 1   
     7     2     8 1   
     8     2     9 1   
     9     3    10 1   
    10     3    11 1   
    11     4    12 1   
    12     4    13 1   
    13     4    14 1   
@<TRIPOS>SUBSTRUCTURE
     1 non         1 TEMP              0 ****  ****    0 ROOT
