@<TRIPOS>MOLECULE
BUTANE
14 13 1
SMALL
USER_CHARGES
@<TRIPOS>ATOM
1	C1     2.6489     1.2084    -2.0930	C.3	1	noname	-0.0654
2	C2     1.2975     0.8343    -1.4451	C.3	1	noname	-0.0564
3	C3     1.4651     0.0628    -0.1087	C.3	1	noname	-0.0564
4	C4     0.1138    -0.3113     0.5392	C.3	1	noname	-0.0654
5	H1     3.3822     1.4114    -1.3125	H	1	noname	0.0230
6	H2     2.9965     0.3812    -2.7118	H	1	noname	0.0230
7	H3     2.5216     2.0966    -2.7118	H	1	noname	0.0230
8	H4     0.8146     1.7781    -1.1920	H	1	noname	0.0263
9	H5     0.8147     0.1431    -2.1359	H	1	noname	0.0263
10	H6     1.9480    -0.8811    -0.3618	H	1	noname	0.0263
11	H7     1.9479     0.7540     0.5821	H	1	noname	0.0263
12	H8     0.2114    -0.2843     1.6245	H	1	noname	0.0230
13	H9    -0.6492     0.4009     0.2252	H	1	noname	0.0230
14	H10    -0.1743    -1.3145     0.2252	H	1	noname	0.0230
@<TRIPOS>BOND
1	1	2	1
2	2	3	1
3	3	4	1
4	1	5	1
5	1	6	1
6	1	7	1
7	2	8	1
8	2	9	1
9	3	10	1
10	3	11	1
11	4	12	1
12	4	13	1
13	4	14	1
@<TRIPOS>SUBSTRUCTURE
1	noname	1
